8
Properties=species:S:1:pos:R:3:Z:I:1
O	-0.036341	-0.046457	0.000000	8
H	0.922448	-0.054218	0.000000	1
H	-0.274749	0.882250	0.000000	1
Es	-0.036159	-0.046224	0.000000	99
Es	-0.119367	-0.152599	-0.262764	99
Es	0.480642	-0.031352	0.000000	99
Es	-0.119367	-0.152599	0.262764	99
Es	-0.146169	0.458951	0.000000	99
